-------------------------------------------------------
          Amber 9  SANDER                              2006
          -------------------------------------------------------

File Assignments:

 Here is the input file:

 3-paso Estabilizacion (c)
 &cntrl
     imin=0, irest=1, ntx=7,
     ntpr=1000,
     ntc=1,ntf=1, dt=0.001, tol=0.000001,
     cut = 10.0,
     scee=1.2,
     ntb=1,igb=0,
     ntp=0,
     nstlim=500000,
     ntt=1, tautp=0.2, taup=0.2,
     tempi=300.0, temp0=300.0,
     ntwv=1000, ntwe=1000, ntwx=1000,ntwr=1000,
     ntr=0,ibelly=0,
 &end

--------------------------------------------------------------------------------
   1.  RESOURCE   USE:
--------------------------------------------------------------------------------

 getting new box info from bottom of inpcrd

 NATOM  =   73707 NTYPES =      22 NBONH =   69435 MBONA  =    4332
 NTHETH =    9852 MTHETA =    5883 NPHIH =   18483 MPHIA  =   14886
 NHPARM =       0 NPARM  =       0 NNB   =  134289 NRES   =   22263
 NBONA  =    4332 NTHETA =    5883 NPHIA =   14886 NUMBND =      58
 NUMANG =     110 NPTRA  =      51 NATYP =      50 NPHB   =       1
 IFBOX  =       1 NMXRS  =      37 IFCAP =       0 NEXTRA =       0
 NCOPY  =       0

     BOX TYPE: RECTILINEAR

--------------------------------------------------------------------------------
   2.  CONTROL  DATA  FOR  THE  RUN
--------------------------------------------------------------------------------

General flags:
     imin    =       0, nmropt  =       0

Nature and format of input:
     ntx     =       7, irest   =       1, ntrx    =       1

Nature and format of output:
     ntxo    =       1, ntpr    =    1000, ntrx    =       1, ntwr    =    1000
     iwrap   =       0, ntwx    =    1000, ntwv    =    1000, ntwe    =    1000
     ioutfm  =       0, ntwprt  =       0, idecomp =       0, rbornstat=      0

Potential function:
     ntf     =       1, ntb     =       1, igb     =       0, nsnb    =      25
     ipol    =       0, gbsa    =       0, iesp    =       0
     dielc   =   1.00000, cut     =  10.00000, intdiel =   1.00000
     scnb    =   2.00000, scee    =   1.20000

Frozen or restrained atoms:
     ibelly  =       0, ntr     =       0

Molecular dynamics:
     nstlim  =    500000, nscm    =      1000, nrespa  =         1
     t       =   0.00000, dt      =   0.00100, vlimit  =  20.00000

Berendsen (weak-coupling) temperature regulation:
     temp0   = 300.00000, tempi   = 300.00000, tautp   =   0.20000

Ewald parameters:
     verbose =       0, ew_type =       0, nbflag  =       1, use_pme =       1
     vdwmeth =       1, eedmeth =       1, netfrc  =       1
     Box X =   92.786   Box Y =   92.081   Box Z =   85.468
     Alpha =   90.000   Beta  =   90.000   Gamma =   90.000
     NFFT1 =   96       NFFT2 =   96       NFFT3 =   90
     Cutoff=   10.000   Tol   =0.100E-04
     Ewald Coefficient =  0.27511
     Interpolation order =    4

--------------------------------------------------------------------------------
   3.  ATOMIC COORDINATES AND VELOCITIES
--------------------------------------------------------------------------------

 begin time read from input coords =   200.000 ps

 Number of triangulated 3-point waters found:    21702

     Sum of charges from parm topology file =   0.00482972
     Forcing neutrality...

--------------------------------------------------------------------------------
   4.  RESULTS
 NSTEP =     1000   TIME(PS) =     201.000  TEMP(K) =   300.04  PRESS =     0.0
 Etot   =   -158306.6679  EKtot   =     65919.8833  EPtot      =   -224226.5513
 BOND   =     34419.6187  ANGLE   =      4887.0319  DIHED      =      5976.6742
 1-4 NB =      1990.7923  1-4 EEL =     19941.2394  VDWAALS    =     35197.6462
 EELEC  =   -326639.5540  EHBOND  =         0.0000  RESTRAINT  =         0.0000
 Ewald error estimate:   0.9524E-05
 ------------------------------------------------------------------------------

      A V E R A G E S   O V E R  500000 S T E P S

 NSTEP =   500000   TIME(PS) =     700.000  TEMP(K) =   300.00  PRESS =     0.0
 Etot   =   -159381.1839  EKtot   =     65911.2958  EPtot      =   -225292.4797
 BOND   =     37867.9935  ANGLE   =      4709.4246  DIHED      =      5940.3900
 1-4 NB =      1982.9031  1-4 EEL =     20087.0113  VDWAALS    =     36412.0817
 EELEC  =   -332292.2840  EHBOND  =         0.0000  RESTRAINT  =         0.0000
 Ewald error estimate:   0.3866E-04
 ------------------------------------------------------------------------------

      R M S  F L U C T U A T I O N S

 NSTEP =   500000   TIME(PS) =     700.000  TEMP(K) =     0.69  PRESS =     0.0
 Etot   =       493.0277  EKtot   =       151.0515  EPtot      =       516.4690
 BOND   =      1487.0505  ANGLE   =        92.7503  DIHED      =        41.8190
 1-4 NB =        20.4844  1-4 EEL =        63.9071  VDWAALS    =       561.1790
 EELEC  =      2404.5815  EHBOND  =         0.0000  RESTRAINT  =         0.0000
 Ewald error estimate:   0.2878E-04
 ------------------------------------------------------------------------------
